Circuit: * C:\users\farhad\My Documents\github\heirs-cheap-diy-bench-power-supply\LTspice\rev 1.3.asc

Direct Newton iteration for .op point succeeded.
Heightened Def Con from 0.210829 to 0.210829

Date: Sun Aug 30 10:40:52 2020
Total elapsed time: 131.154 seconds.

tnom = 27
temp = 27
method = modified trap
totiter = 13599059
traniter = 13599038
tranpoints = 4427453
accept = 2951636
rejected = 1475818
matrix size = 79
fillins = 120
solver = Normal
Matrix Compiler1: 9.95 KB object code size  3.5/1.7/[0.9]
Matrix Compiler2: 7.95 KB object code size  1.1/1.9/[0.8]

