Circuit: * C:\users\farhad\My Documents\github\heirs-cheap-diy-bench-power-supply\Experiments\Tap switching topology\Draft1.asc

D1: both pins shorted together -- ignoring.
Error on line 12 : v8 nc_01 0 v
	 Unknown parameter "v"
WARNING: Less than two connections to node NC_01.  This node is used by V8.
V8: Missing value, assumed 0V @ DC
Early termination of direct N-R iteration.
Direct Newton iteration failed to find .op point.  (Use ".option noopiter" to skip.)
Starting Gmin stepping
Gmin = 10
vernier = 0.5
vernier = 0.25
vernier = 0.125
Gmin = 4.55111
vernier = 0.0625
vernier = 0.03125
vernier = 0.015625
vernier = 0.0078125
Gmin = 4.47236
vernier = 0.00390625
vernier = 0.00195313
vernier = 0.000976563
vernier = 0.000488281
Gmin = 0
Gmin = 0
Gmin stepping succeeded in finding the operating point.


Date: Tue Sep 01 12:37:46 2020
Total elapsed time: 0.322 seconds.

tnom = 27
temp = 27
method = modified trap
totiter = 3519
traniter = 2058
tranpoints = 1030
accept = 1030
rejected = 0
matrix size = 41
fillins = 114
solver = Normal
Matrix Compiler1: 10.12 KB object code size  1.9/1.2/[0.6]
Matrix Compiler2: 5.32 KB object code size  0.6/0.7/[0.4]

