Circuit: * Z:\home\farhad\github\heirs-cheap-diy-bench-power-supply\Experiments\Tap switching topology\Draft2.asc

WARNING: Less than two connections to node V-.  This node is used by V3.
Direct Newton iteration for .op point succeeded.

Date: Tue Sep 29 13:17:45 2020
Total elapsed time: 0.089 seconds.

tnom = 27
temp = 27
method = modified trap
totiter = 2517
traniter = 2502
tranpoints = 1209
accept = 1156
rejected = 53
matrix size = 47
fillins = 32
solver = Normal
Matrix Compiler1: 3.03 KB object code size  0.6/0.3/[0.2]
Matrix Compiler2: 3.71 KB object code size  0.3/0.4/[0.3]

