Circuit: * C:\users\farhad\My Documents\github\heirs-cheap-diy-bench-power-supply\Experiments\Tap switching topology\Draft1.asc

Error on line 15 : v8 nc_02 0 v
	 Unknown parameter "v"
WARNING: Node NC_01 is floating.

WARNING: Less than two connections to node NC_01.  This node is used by J:U2:1.
WARNING: Less than two connections to node NC_02.  This node is used by V8.
V8: Missing value, assumed 0V @ DC
Early termination of direct N-R iteration.
Direct Newton iteration failed to find .op point.  (Use ".option noopiter" to skip.)
Starting Gmin stepping
Gmin = 10
vernier = 0.5
vernier = 0.25
vernier = 0.125
Gmin = 5.5165
vernier = 0.0625
vernier = 0.03125
vernier = 0.015625
vernier = 0.0078125
Gmin = 5.49501
vernier = 0.00390625
vernier = 0.00195313
vernier = 0.000976563
vernier = 0.000488281
Gmin = 5.50104
Gmin = 0
Gmin stepping failed

Starting source stepping with srcstepmethod=0
Source Step = 3.0303%
Source Step = 33.3333%
Source Step = 63.6364%
Source Step = 93.9394%
Source stepping succeeded in finding the operating point.


Date: Tue Sep 01 12:20:00 2020
Total elapsed time: 0.578 seconds.

tnom = 27
temp = 27
method = modified trap
totiter = 3760
traniter = 2058
tranpoints = 1030
accept = 1030
rejected = 0
matrix size = 75
fillins = 281
solver = Normal
Thread vector: 4.4/4.2[1] 2.7/2.0[2] 2.3/2.3[1] 0.3/1.2[1]  2592/500
Matrix Compiler1: 19.53 KB object code size  3.0/1.5/[0.9]
Matrix Compiler2: 11.08 KB object code size  1.7/1.6/[0.5]

